Working SCRATCH directory is /scratch/pmc026/nchoong/run_conda/480311
Results will be stored in /group/pmc026/nchoong/QuantumTransformer/conda_results/480311
SLURM_SUBMIT_DIR is
/group/pmc026/nchoong/QuantumTransformer
total 151
drwxrwxr-x 2 nchoong nchoong      0 Aug 17 10:14 .
drwxrwxr-x 4 nchoong nchoong      0 Aug 17 10:14 ..
-rw-rw-r-- 1 nchoong nchoong 153852 Aug 17 10:14 2_angle_rz_basic_qvc_slurm-gpu.ipynb
Sat Aug 17 10:14:45 2024       
+-----------------------------------------------------------------------------------------+
| NVIDIA-SMI 550.54.14              Driver Version: 550.54.14      CUDA Version: 12.4     |
|-----------------------------------------+------------------------+----------------------+
| GPU  Name                 Persistence-M | Bus-Id          Disp.A | Volatile Uncorr. ECC |
| Fan  Temp   Perf          Pwr:Usage/Cap |           Memory-Usage | GPU-Util  Compute M. |
|                                         |                        |               MIG M. |
|=========================================+========================+======================|
|   0  Tesla V100-PCIE-32GB           Off |   00000000:3B:00.0 Off |                    0 |
| N/A   47C    P0             93W /  250W |     431MiB /  32768MiB |     90%      Default |
|                                         |                        |                  N/A |
+-----------------------------------------+------------------------+----------------------+
|   1  Tesla V100-PCIE-32GB           Off |   00000000:D8:00.0 Off |                    0 |
| N/A   33C    P0             25W /  250W |       0MiB /  32768MiB |      0%      Default |
|                                         |                        |                  N/A |
+-----------------------------------------+------------------------+----------------------+
                                                                                         
+-----------------------------------------------------------------------------------------+
| Processes:                                                                              |
|  GPU   GI   CI        PID   Type   Process name                              GPU Memory |
|        ID   ID                                                               Usage      |
|=========================================================================================|
|    0   N/A  N/A   3824319      C   ...xsg_gcc7/DualSPHysics5Alpha_linux64        428MiB |
+-----------------------------------------------------------------------------------------+
Input Notebook:  ./2_angle_rz_basic_qvc_slurm-gpu.ipynb
Output Notebook: ./2_angle_rz_basic_qvc_slurm-gpu.papermill.ipynb
Executing:   0%|          | 0/47 [00:00<?, ?cell/s]Executing notebook with kernel: quant
Executing:   2%|▏         | 1/47 [00:02<01:44,  2.27s/cell]Executing:   4%|▍         | 2/47 [00:04<01:28,  1.96s/cell]Executing:   9%|▊         | 4/47 [00:04<00:32,  1.31cell/s]Executing:  13%|█▎        | 6/47 [00:04<00:17,  2.33cell/s]Executing:  26%|██▌       | 12/47 [00:04<00:05,  6.38cell/s]Executing:  36%|███▌      | 17/47 [00:04<00:02, 10.35cell/s]Executing:  47%|████▋     | 22/47 [00:04<00:01, 14.77cell/s]Executing:  57%|█████▋    | 27/47 [00:05<00:02,  9.52cell/s]Executing:  66%|██████▌   | 31/47 [00:05<00:01, 12.06cell/s]Executing:  77%|███████▋  | 36/47 [00:05<00:00, 15.97cell/s]Executing:  85%|████████▌ | 40/47 [00:06<00:00, 12.27cell/s]Executing:  85%|████████▌ | 40/47 [00:20<00:00, 12.27cell/s]