Working SCRATCH directory is /scratch/pmc026/nchoong/run_conda/480311
Results will be stored in /group/pmc026/nchoong/QuantumTransformer/conda_results/480311
SLURM_SUBMIT_DIR is
/group/pmc026/nchoong/QuantumTransformer
total 151
drwxrwxr-x 2 nchoong nchoong      0 Aug 17 10:14 .
drwxrwxr-x 4 nchoong nchoong      0 Aug 17 10:14 ..
-rw-rw-r-- 1 nchoong nchoong 153852 Aug 17 10:14 2_angle_rz_basic_qvc_slurm-gpu.ipynb
Sat Aug 17 10:14:45 2024       
+-----------------------------------------------------------------------------------------+
| NVIDIA-SMI 550.54.14              Driver Version: 550.54.14      CUDA Version: 12.4     |
|-----------------------------------------+------------------------+----------------------+
| GPU  Name                 Persistence-M | Bus-Id          Disp.A | Volatile Uncorr. ECC |
| Fan  Temp   Perf          Pwr:Usage/Cap |           Memory-Usage | GPU-Util  Compute M. |
|                                         |                        |               MIG M. |
|=========================================+========================+======================|
|   0  Tesla V100-PCIE-32GB           Off |   00000000:3B:00.0 Off |                    0 |
| N/A   47C    P0             93W /  250W |     431MiB /  32768MiB |     90%      Default |
|                                         |                        |                  N/A |
+-----------------------------------------+------------------------+----------------------+
|   1  Tesla V100-PCIE-32GB           Off |   00000000:D8:00.0 Off |                    0 |
| N/A   33C    P0             25W /  250W |       0MiB /  32768MiB |      0%      Default |
|                                         |                        |                  N/A |
+-----------------------------------------+------------------------+----------------------+
                                                                                         
+-----------------------------------------------------------------------------------------+
| Processes:                                                                              |
|  GPU   GI   CI        PID   Type   Process name                              GPU Memory |
|        ID   ID                                                               Usage      |
|=========================================================================================|
|    0   N/A  N/A   3824319      C   ...xsg_gcc7/DualSPHysics5Alpha_linux64        428MiB |
+-----------------------------------------------------------------------------------------+
Input Notebook:  ./2_angle_rz_basic_qvc_slurm-gpu.ipynb
Output Notebook: ./2_angle_rz_basic_qvc_slurm-gpu.papermill.ipynb
Executing:   0%|          | 0/47 [00:00<?, ?cell/s]Executing notebook with kernel: quant
Executing:   2%|▏         | 1/47 [00:02<01:44,  2.27s/cell]Executing:   4%|▍         | 2/47 [00:04<01:28,  1.96s/cell]Executing:   9%|▊         | 4/47 [00:04<00:32,  1.31cell/s]Executing:  13%|█▎        | 6/47 [00:04<00:17,  2.33cell/s]Executing:  26%|██▌       | 12/47 [00:04<00:05,  6.38cell/s]Executing:  36%|███▌      | 17/47 [00:04<00:02, 10.35cell/s]Executing:  47%|████▋     | 22/47 [00:04<00:01, 14.77cell/s]Executing:  57%|█████▋    | 27/47 [00:05<00:02,  9.52cell/s]Executing:  66%|██████▌   | 31/47 [00:05<00:01, 12.06cell/s]Executing:  77%|███████▋  | 36/47 [00:05<00:00, 15.97cell/s]Executing:  85%|████████▌ | 40/47 [00:06<00:00, 12.27cell/s]Executing:  85%|████████▌ | 40/47 [00:20<00:00, 12.27cell/s]Executing:  87%|████████▋ | 41/47 [64:24:02<35:09:40, 21096.71s/cell]Executing:  89%|████████▉ | 42/47 [64:24:02<25:55:48, 18669.72s/cell]Executing:  96%|█████████▌| 45/47 [64:24:03<6:56:49, 12504.63s/cell] Executing:  98%|█████████▊| 46/47 [64:24:05<1:24:00, 5040.11s/cell] 
Traceback (most recent call last):
  File "/group/pmc026/nchoong/quantum/bin/papermill", line 8, in <module>
    sys.exit(papermill())
             ^^^^^^^^^^^
  File "/group/pmc026/nchoong/quantum/lib/python3.11/site-packages/click/core.py", line 1157, in __call__
    return self.main(*args, **kwargs)
           ^^^^^^^^^^^^^^^^^^^^^^^^^^
  File "/group/pmc026/nchoong/quantum/lib/python3.11/site-packages/click/core.py", line 1078, in main
    rv = self.invoke(ctx)
         ^^^^^^^^^^^^^^^^
  File "/group/pmc026/nchoong/quantum/lib/python3.11/site-packages/click/core.py", line 1434, in invoke
    return ctx.invoke(self.callback, **ctx.params)
           ^^^^^^^^^^^^^^^^^^^^^^^^^^^^^^^^^^^^^^^
  File "/group/pmc026/nchoong/quantum/lib/python3.11/site-packages/click/core.py", line 783, in invoke
    return __callback(*args, **kwargs)
           ^^^^^^^^^^^^^^^^^^^^^^^^^^^
  File "/group/pmc026/nchoong/quantum/lib/python3.11/site-packages/click/decorators.py", line 33, in new_func
    return f(get_current_context(), *args, **kwargs)
           ^^^^^^^^^^^^^^^^^^^^^^^^^^^^^^^^^^^^^^^^^
  File "/group/pmc026/nchoong/quantum/lib/python3.11/site-packages/papermill/cli.py", line 235, in papermill
    execute_notebook(
  File "/group/pmc026/nchoong/quantum/lib/python3.11/site-packages/papermill/execute.py", line 131, in execute_notebook
    raise_for_execution_errors(nb, output_path)
  File "/group/pmc026/nchoong/quantum/lib/python3.11/site-packages/papermill/execute.py", line 251, in raise_for_execution_errors
    raise error
papermill.exceptions.PapermillExecutionError: 
---------------------------------------------------------------------------
Exception encountered at "In [25]":
---------------------------------------------------------------------------
FileNotFoundError                         Traceback (most recent call last)
Cell In[25], line 1
----> 1 checkpoint = torch.load(
      2     ".models/model_and_metrics_epoch_10.pt"
      3 )  # Replace x with the epoch number
      5 # Load the metrics
      6 epoch = checkpoint["epoch"]

File ~/.local/lib/python3.11/site-packages/torch/serialization.py:997, in load(f, map_location, pickle_module, weights_only, mmap, **pickle_load_args)
    994 if 'encoding' not in pickle_load_args.keys():
    995     pickle_load_args['encoding'] = 'utf-8'
--> 997 with _open_file_like(f, 'rb') as opened_file:
    998     if _is_zipfile(opened_file):
    999         # The zipfile reader is going to advance the current file position.
   1000         # If we want to actually tail call to torch.jit.load, we need to
   1001         # reset back to the original position.
   1002         orig_position = opened_file.tell()

File ~/.local/lib/python3.11/site-packages/torch/serialization.py:444, in _open_file_like(name_or_buffer, mode)
    442 def _open_file_like(name_or_buffer, mode):
    443     if _is_path(name_or_buffer):
--> 444         return _open_file(name_or_buffer, mode)
    445     else:
    446         if 'w' in mode:

File ~/.local/lib/python3.11/site-packages/torch/serialization.py:425, in _open_file.__init__(self, name, mode)
    424 def __init__(self, name, mode):
--> 425     super().__init__(open(name, mode))

FileNotFoundError: [Errno 2] No such file or directory: '.models/model_and_metrics_epoch_10.pt'

mv /scratch/pmc026/nchoong/run_conda/480311 /group/pmc026/nchoong/QuantumTransformer/conda_results
Please see the /group/pmc026/nchoong/QuantumTransformer/conda_results directory for any output

Mothur MPI job started  at Sat Aug 17 10:14:44 AWST 2024
Mothur MPI job finished at Tue Aug 20 02:38:54 AWST 2024
