Working SCRATCH directory is /scratch/pmc026/nchoong/run_conda/479806
Results will be stored in /group/pmc026/nchoong/QuantumTransformer/conda_results/479806
SLURM_SUBMIT_DIR is
/group/pmc026/nchoong/QuantumTransformer
total 149
drwxrwxr-x 2 nchoong nchoong      0 Aug 15 20:07 .
drwxrwxr-x 3 nchoong nchoong      0 Aug 15 20:07 ..
-rw-rw-r-- 1 nchoong nchoong 152049 Aug 15 20:07 2_angle_rz_basic_qvc_slurm.ipynb
Thu Aug 15 20:07:29 2024       
+-----------------------------------------------------------------------------------------+
| NVIDIA-SMI 550.54.14              Driver Version: 550.54.14      CUDA Version: 12.4     |
|-----------------------------------------+------------------------+----------------------+
| GPU  Name                 Persistence-M | Bus-Id          Disp.A | Volatile Uncorr. ECC |
| Fan  Temp   Perf          Pwr:Usage/Cap |           Memory-Usage | GPU-Util  Compute M. |
|                                         |                        |               MIG M. |
|=========================================+========================+======================|
|   0  Tesla V100-PCIE-32GB           Off |   00000000:3B:00.0 Off |                    0 |
| N/A   34C    P0             21W /  250W |       0MiB /  32768MiB |      0%      Default |
|                                         |                        |                  N/A |
+-----------------------------------------+------------------------+----------------------+
|   1  Tesla V100-PCIE-32GB           Off |   00000000:D8:00.0 Off |                    0 |
| N/A   48C    P0            100W /  250W |     461MiB /  32768MiB |     90%      Default |
|                                         |                        |                  N/A |
+-----------------------------------------+------------------------+----------------------+
                                                                                         
+-----------------------------------------------------------------------------------------+
| Processes:                                                                              |
|  GPU   GI   CI        PID   Type   Process name                              GPU Memory |
|        ID   ID                                                               Usage      |
|=========================================================================================|
|    1   N/A  N/A    650831      C   ...xsg_gcc7/DualSPHysics5Alpha_linux64        464MiB |
+-----------------------------------------------------------------------------------------+
usage: jupyter [-h] [--version] [--config-dir] [--data-dir] [--runtime-dir]
               [--paths] [--json] [--debug]
               [subcommand]

Jupyter: Interactive Computing

positional arguments:
  subcommand     the subcommand to launch

options:
  -h, --help     show this help message and exit
  --version      show the versions of core jupyter packages and exit
  --config-dir   show Jupyter config dir
  --data-dir     show Jupyter data dir
  --runtime-dir  show Jupyter runtime dir
  --paths        show all Jupyter paths. Add --json for machine-readable
                 format.
  --json         output paths as machine-readable json
  --debug        output debug information about paths

Available subcommands: kernel kernelspec migrate run troubleshoot

Jupyter command `jupyter-nbconvert` not found.
mv /scratch/pmc026/nchoong/run_conda/479806 /group/pmc026/nchoong/QuantumTransformer/conda_results
Please see the /group/pmc026/nchoong/QuantumTransformer/conda_results directory for any output

Mothur MPI job started  at Thu Aug 15 20:07:28 AWST 2024
Mothur MPI job finished at Thu Aug 15 20:07:29 AWST 2024
